data_image0
_cell_length_a       41.9353
_cell_length_b       41.8565
_cell_length_c       17.639
_cell_angle_alpha    90.0433
_cell_angle_beta     89.8783
_cell_angle_gamma    119.962

_symmetry_space_group_name_H-M    "P 1"
_symmetry_int_tables_number       1

loop_
  _symmetry_equiv_pos_as_xyz
  'x, y, z'

loop_
  _atom_site_label
  _atom_site_occupancy
  _atom_site_fract_x
  _atom_site_fract_y
  _atom_site_fract_z
  _atom_site_thermal_displace_type
  _atom_site_B_iso_or_equiv
  _atom_site_type_symbol
  Zn1      1.0000 0.41139  0.48141  0.75358  Biso   1.000  Zn
  Zn2      1.0000 0.59498  0.52299  0.25102  Biso   1.000  Zn
  Zn3      1.0000 0.52153  0.92988  0.75005  Biso   1.000  Zn
  Zn4      1.0000 0.47681  0.06884  0.25026  Biso   1.000  Zn
  Zn5      1.0000 0.07035  0.59040  0.74720  Biso   1.000  Zn
  Zn6      1.0000 0.92972  0.40661  0.24963  Biso   1.000  Zn
  Zn7      1.0000 0.37586  0.40467  0.66129  Biso   1.000  Zn
  Zn8      1.0000 0.63208  0.60005  0.33919  Biso   1.000  Zn
  Zn9      1.0000 0.59833  0.96970  0.66085  Biso   1.000  Zn
  Zn10     1.0000 0.40008  0.02890  0.34288  Biso   1.000  Zn
  Zn11     1.0000 0.03047  0.62725  0.65735  Biso   1.000  Zn
  Zn12     1.0000 0.96973  0.36975  0.33865  Biso   1.000  Zn
  Zn13     1.0000 0.63175  0.59999  0.15787  Biso   1.000  Zn
  Zn14     1.0000 0.37428  0.40332  0.84290  Biso   1.000  Zn
  Zn15     1.0000 0.40014  0.02887  0.16136  Biso   1.000  Zn
  Zn16     1.0000 0.59844  0.97107  0.84208  Biso   1.000  Zn
  Zn17     1.0000 0.97106  0.37069  0.15752  Biso   1.000  Zn
  Zn18     1.0000 0.03026  0.62715  0.83872  Biso   1.000  Zn
  Zn19     1.0000 0.32457  0.42861  0.75301  Biso   1.000  Zn
  Zn20     1.0000 0.68180  0.57429  0.24684  Biso   1.000  Zn
  Zn21     1.0000 0.57278  0.89441  0.75445  Biso   1.000  Zn
  Zn22     1.0000 0.42569  0.10520  0.25361  Biso   1.000  Zn
  Zn23     1.0000 0.10551  0.67826  0.74957  Biso   1.000  Zn
  Zn24     1.0000 0.89447  0.31990  0.24326  Biso   1.000  Zn
  H1       1.0000 0.45542  0.43780  0.49274  Biso   1.000  H
  H2       1.0000 0.56409  0.01237  0.48028  Biso   1.000  H
  H3       1.0000 0.43432  0.98284  0.51374  Biso   1.000  H
  H4       1.0000 0.98469  0.54845  0.48385  Biso   1.000  H
  H5       1.0000 0.01603  0.44902  0.51220  Biso   1.000  H
  H6       1.0000 0.55180  0.56647  0.99130  Biso   1.000  H
  H7       1.0000 0.45476  0.43448  0.01120  Biso   1.000  H
  H8       1.0000 0.43240  0.97965  0.99255  Biso   1.000  H
  H9       1.0000 0.56663  0.02367  0.00113  Biso   1.000  H
  H10      1.0000 0.01834  0.45070  0.99023  Biso   1.000  H
  H11      1.0000 0.98314  0.54763  0.00855  Biso   1.000  H
  H12      1.0000 0.50092  0.54194  0.60732  Biso   1.000  H
  H13      1.0000 0.50726  0.46540  0.39849  Biso   1.000  H
  H14      1.0000 0.46367  0.96083  0.60876  Biso   1.000  H
  H15      1.0000 0.53479  0.03450  0.38540  Biso   1.000  H
  H16      1.0000 0.03955  0.50121  0.60602  Biso   1.000  H
  H17      1.0000 0.96129  0.49636  0.38992  Biso   1.000  H
  H18      1.0000 0.50661  0.46221  0.10533  Biso   1.000  H
  H19      1.0000 0.49975  0.53885  0.89765  Biso   1.000  H
  H20      1.0000 0.53807  0.04705  0.09539  Biso   1.000  H
  H21      1.0000 0.46093  0.95612  0.89857  Biso   1.000  H
  H22      1.0000 0.95854  0.49559  0.10257  Biso   1.000  H
  H23      1.0000 0.04266  0.50254  0.89584  Biso   1.000  H
  H24      1.0000 0.25198  0.41273  0.57937  Biso   1.000  H
  H25      1.0000 0.75051  0.58422  0.42573  Biso   1.000  H
  H26      1.0000 0.58056  0.83443  0.57408  Biso   1.000  H
  H27      1.0000 0.41606  0.16347  0.43403  Biso   1.000  H
  H28      1.0000 0.16477  0.74520  0.56685  Biso   1.000  H
  H29      1.0000 0.83517  0.25084  0.42418  Biso   1.000  H
  H30      1.0000 0.75176  0.58824  0.06916  Biso   1.000  H
  H31      1.0000 0.25639  0.42050  0.93288  Biso   1.000  H
  H32      1.0000 0.41239  0.16233  0.07970  Biso   1.000  H
  H33      1.0000 0.58837  0.83905  0.92917  Biso   1.000  H
  H34      1.0000 0.83884  0.25098  0.06921  Biso   1.000  H
  H35      1.0000 0.16029  0.75097  0.92180  Biso   1.000  H
  H36      1.0000 0.21731  0.40692  0.46128  Biso   1.000  H
  H37      1.0000 0.78330  0.58915  0.54634  Biso   1.000  H
  H38      1.0000 0.58540  0.80629  0.45360  Biso   1.000  H
  H39      1.0000 0.40987  0.19166  0.55315  Biso   1.000  H
  H40      1.0000 0.19248  0.77881  0.44674  Biso   1.000  H
  H41      1.0000 0.80754  0.21752  0.54474  Biso   1.000  H
  H42      1.0000 0.78565  0.59416  0.94937  Biso   1.000  H
  H43      1.0000 0.22237  0.41508  0.05205  Biso   1.000  H
  H44      1.0000 0.40875  0.19168  0.96011  Biso   1.000  H
  H45      1.0000 0.59409  0.81025  0.04760  Biso   1.000  H
  H46      1.0000 0.80957  0.21777  0.94988  Biso   1.000  H
  H47      1.0000 0.18881  0.78455  0.04125  Biso   1.000  H
  H48      1.0000 0.27309  0.35690  0.35017  Biso   1.000  H
  H49      1.0000 0.73512  0.64925  0.64606  Biso   1.000  H
  H50      1.0000 0.64713  0.91455  0.35468  Biso   1.000  H
  H51      1.0000 0.35411  0.08425  0.65746  Biso   1.000  H
  H52      1.0000 0.08447  0.72933  0.34686  Biso   1.000  H
  H53      1.0000 0.91563  0.26671  0.64397  Biso   1.000  H
  H54      1.0000 0.73357  0.64955  0.84590  Biso   1.000  H
  H55      1.0000 0.27264  0.35810  0.15637  Biso   1.000  H
  H56      1.0000 0.35237  0.08482  0.85364  Biso   1.000  H
  H57      1.0000 0.64437  0.91628  0.15751  Biso   1.000  H
  H58      1.0000 0.91599  0.26948  0.84159  Biso   1.000  H
  H59      1.0000 0.08245  0.72971  0.14952  Biso   1.000  H
  H60      1.0000 0.30943  0.36542  0.46688  Biso   1.000  H
  H61      1.0000 0.70041  0.64164  0.52694  Biso   1.000  H
  H62      1.0000 0.64004  0.94206  0.47398  Biso   1.000  H
  H63      1.0000 0.36286  0.05691  0.53968  Biso   1.000  H
  H64      1.0000 0.05758  0.69387  0.46549  Biso   1.000  H
  H65      1.0000 0.94257  0.30151  0.52455  Biso   1.000  H
  H66      1.0000 0.69804  0.64118  0.96448  Biso   1.000  H
  H67      1.0000 0.30859  0.36631  0.03881  Biso   1.000  H
  H68      1.0000 0.35886  0.05636  0.97174  Biso   1.000  H
  H69      1.0000 0.63583  0.94402  0.04053  Biso   1.000  H
  H70      1.0000 0.94430  0.30477  0.95947  Biso   1.000  H
  H71      1.0000 0.05483  0.69455  0.03114  Biso   1.000  H
  H72      1.0000 0.26994  0.38875  0.25532  Biso   1.000  H
  H73      1.0000 0.73575  0.61737  0.74672  Biso   1.000  H
  H74      1.0000 0.61444  0.88197  0.25407  Biso   1.000  H
  H75      1.0000 0.38473  0.11807  0.75655  Biso   1.000  H
  H76      1.0000 0.11726  0.73183  0.24563  Biso   1.000  H
  H77      1.0000 0.88238  0.26650  0.74413  Biso   1.000  H
  H78      1.0000 0.17365  0.37165  0.37622  Biso   1.000  H
  H79      1.0000 0.82805  0.62456  0.62575  Biso   1.000  H
  H80      1.0000 0.62132  0.79647  0.37395  Biso   1.000  H
  H81      1.0000 0.37293  0.19980  0.63277  Biso   1.000  H
  H82      1.0000 0.20136  0.82376  0.36864  Biso   1.000  H
  H83      1.0000 0.80001  0.17186  0.62462  Biso   1.000  H
  H84      1.0000 0.83020  0.63111  0.86914  Biso   1.000  H
  H85      1.0000 0.17763  0.37997  0.13284  Biso   1.000  H
  H86      1.0000 0.37595  0.20262  0.87655  Biso   1.000  H
  H87      1.0000 0.62862  0.80143  0.13053  Biso   1.000  H
  H88      1.0000 0.79886  0.17430  0.86835  Biso   1.000  H
  H89      1.0000 0.19697  0.82823  0.12552  Biso   1.000  H
  H90      1.0000 0.11985  0.35077  0.14160  Biso   1.000  H
  H91      1.0000 0.86049  0.60258  0.85814  Biso   1.000  H
  H92      1.0000 0.60231  0.74272  0.14005  Biso   1.000  H
  H93      1.0000 0.34668  0.23179  0.86270  Biso   1.000  H
  H94      1.0000 0.25637  0.85977  0.13736  Biso   1.000  H
  H95      1.0000 0.76954  0.11568  0.85650  Biso   1.000  H
  H96      1.0000 0.88665  0.65440  0.63820  Biso   1.000  H
  H97      1.0000 0.14064  0.39745  0.36627  Biso   1.000  H
  H98      1.0000 0.39957  0.25823  0.64372  Biso   1.000  H
  H99      1.0000 0.65188  0.76849  0.36187  Biso   1.000  H
  H100     1.0000 0.74176  0.14090  0.63798  Biso   1.000  H
  H101     1.0000 0.22874  0.88247  0.35880  Biso   1.000  H
  H102     1.0000 0.06111  0.35130  0.13844  Biso   1.000  H
  H103     1.0000 0.92021  0.60371  0.85884  Biso   1.000  H
  H104     1.0000 0.60652  0.68575  0.13804  Biso   1.000  H
  H105     1.0000 0.34797  0.29163  0.86329  Biso   1.000  H
  H106     1.0000 0.31426  0.92009  0.13948  Biso   1.000  H
  H107     1.0000 0.70987  0.05706  0.85903  Biso   1.000  H
  H108     1.0000 0.94443  0.65168  0.63648  Biso   1.000  H
  H109     1.0000 0.08002  0.39415  0.36507  Biso   1.000  H
  H110     1.0000 0.39704  0.31610  0.64182  Biso   1.000  H
  H111     1.0000 0.65227  0.70950  0.36207  Biso   1.000  H
  H112     1.0000 0.68406  0.08042  0.63804  Biso   1.000  H
  H113     1.0000 0.28841  0.94104  0.36290  Biso   1.000  H
  H114     1.0000 0.70440  0.48833  0.21216  Biso   1.000  H
  H115     1.0000 0.48639  0.78771  0.80109  Biso   1.000  H
  H116     1.0000 0.51301  0.21118  0.19253  Biso   1.000  H
  H117     1.0000 0.21154  0.69902  0.80732  Biso   1.000  H
  H118     1.0000 0.78819  0.30018  0.18954  Biso   1.000  H
  H119     1.0000 0.30015  0.51216  0.70607  Biso   1.000  H
  H120     1.0000 0.71176  0.43331  0.20824  Biso   1.000  H
  H121     1.0000 0.43165  0.72476  0.80175  Biso   1.000  H
  H122     1.0000 0.56816  0.27366  0.18802  Biso   1.000  H
  H123     1.0000 0.27459  0.70765  0.81152  Biso   1.000  H
  H124     1.0000 0.72533  0.29193  0.18873  Biso   1.000  H
  H125     1.0000 0.29112  0.56641  0.70115  Biso   1.000  H
  H126     1.0000 0.39896  0.63378  0.79747  Biso   1.000  H
  H127     1.0000 0.60178  0.36745  0.29732  Biso   1.000  H
  H128     1.0000 0.62972  0.23290  0.30931  Biso   1.000  H
  H129     1.0000 0.36899  0.76644  0.68818  Biso   1.000  H
  H130     1.0000 0.76497  0.39242  0.31681  Biso   1.000  H
  H131     1.0000 0.23496  0.60321  0.69872  Biso   1.000  H
  H132     1.0000 0.40898  0.58013  0.79427  Biso   1.000  H
  H133     1.0000 0.59370  0.42208  0.29311  Biso   1.000  H
  H134     1.0000 0.57540  0.16984  0.30614  Biso   1.000  H
  H135     1.0000 0.42297  0.82982  0.69489  Biso   1.000  H
  H136     1.0000 0.82830  0.40203  0.31062  Biso   1.000  H
  H137     1.0000 0.17145  0.59342  0.70191  Biso   1.000  H
  H138     1.0000 0.27974  0.60408  0.76269  Biso   1.000  H
  H139     1.0000 0.72147  0.39449  0.25644  Biso   1.000  H
  H140     1.0000 0.39615  0.67630  0.73560  Biso   1.000  H
  H141     1.0000 0.32395  0.72117  0.74901  Biso   1.000  H
  H142     1.0000 0.67519  0.27706  0.24989  Biso   1.000  H
  H143     1.0000 0.60406  0.32339  0.24917  Biso   1.000  H
  H144     1.0000 0.55296  0.56946  0.51337  Biso   1.000  H
  C1       1.0000 0.44415  0.47144  0.61175  Biso   1.000  C
  C2       1.0000 0.56398  0.53535  0.39385  Biso   1.000  C
  C3       1.0000 0.53273  0.97225  0.60743  Biso   1.000  C
  C4       1.0000 0.46565  0.02361  0.38802  Biso   1.000  C
  C5       1.0000 0.02733  0.55856  0.60623  Biso   1.000  C
  C6       1.0000 0.97322  0.43884  0.38988  Biso   1.000  C
  C7       1.0000 0.56297  0.53259  0.10967  Biso   1.000  C
  C8       1.0000 0.44341  0.46886  0.89317  Biso   1.000  C
  C9       1.0000 0.46656  0.02843  0.10594  Biso   1.000  C
  C10      1.0000 0.53224  0.97434  0.88843  Biso   1.000  C
  C11      1.0000 0.97266  0.43913  0.10807  Biso   1.000  C
  C12      1.0000 0.02879  0.55900  0.89036  Biso   1.000  C
  C13      1.0000 0.47512  0.48822  0.55558  Biso   1.000  C
  C14      1.0000 0.53318  0.51903  0.45046  Biso   1.000  C
  C15      1.0000 0.51557  0.98538  0.55009  Biso   1.000  C
  C16      1.0000 0.48288  0.00999  0.44416  Biso   1.000  C
  C17      1.0000 0.01345  0.52774  0.55015  Biso   1.000  C
  C18      1.0000 0.98733  0.46976  0.44583  Biso   1.000  C
  C19      1.0000 0.53214  0.51593  0.05366  Biso   1.000  C
  C20      1.0000 0.47427  0.48512  0.94916  Biso   1.000  C
  C21      1.0000 0.48360  0.01475  0.04931  Biso   1.000  C
  C22      1.0000 0.51541  0.98857  0.94436  Biso   1.000  C
  C23      1.0000 0.98701  0.47010  0.05188  Biso   1.000  C
  C24      1.0000 0.01435  0.52813  0.94675  Biso   1.000  C
  C25      1.0000 0.47688  0.46655  0.49666  Biso   1.000  C
  C26      1.0000 0.53147  0.54072  0.50941  Biso   1.000  C
  C27      1.0000 0.53577  0.00611  0.48703  Biso   1.000  C
  C28      1.0000 0.46264  0.98912  0.50704  Biso   1.000  C
  C29      1.0000 0.99136  0.52658  0.48933  Biso   1.000  C
  C30      1.0000 0.00942  0.47093  0.50663  Biso   1.000  C
  C31      1.0000 0.53039  0.53769  0.99508  Biso   1.000  C
  C32      1.0000 0.47609  0.46330  0.00755  Biso   1.000  C
  C33      1.0000 0.46170  0.98910  0.99381  Biso   1.000  C
  C34      1.0000 0.53734  0.01427  0.99978  Biso   1.000  C
  C35      1.0000 0.01079  0.47201  0.99360  Biso   1.000  C
  C36      1.0000 0.99061  0.52626  0.00508  Biso   1.000  C
  C37      1.0000 0.50261  0.52544  0.56154  Biso   1.000  C
  C38      1.0000 0.50564  0.48184  0.44444  Biso   1.000  C
  C39      1.0000 0.47890  0.97693  0.55965  Biso   1.000  C
  C40      1.0000 0.51952  0.01835  0.43443  Biso   1.000  C
  C41      1.0000 0.02243  0.49980  0.55851  Biso   1.000  C
  C42      1.0000 0.97840  0.49775  0.43741  Biso   1.000  C
  C43      1.0000 0.50483  0.47864  0.05962  Biso   1.000  C
  C44      1.0000 0.50159  0.52240  0.94324  Biso   1.000  C
  C45      1.0000 0.52152  0.02725  0.05198  Biso   1.000  C
  C46      1.0000 0.47750  0.97606  0.94173  Biso   1.000  C
  C47      1.0000 0.97698  0.49741  0.05722  Biso   1.000  C
  C48      1.0000 0.02431  0.50077  0.94131  Biso   1.000  C
  C49      1.0000 0.30613  0.39629  0.59945  Biso   1.000  C
  C50      1.0000 0.70145  0.60697  0.39914  Biso   1.000  C
  C51      1.0000 0.60462  0.90646  0.60195  Biso   1.000  C
  C52      1.0000 0.39614  0.09212  0.40983  Biso   1.000  C
  C53      1.0000 0.09306  0.69528  0.59351  Biso   1.000  C
  C54      1.0000 0.90676  0.30049  0.39711  Biso   1.000  C
  C55      1.0000 0.70014  0.60759  0.09364  Biso   1.000  C
  C56      1.0000 0.30705  0.39929  0.90864  Biso   1.000  C
  C57      1.0000 0.39136  0.09058  0.10268  Biso   1.000  C
  C58      1.0000 0.60505  0.90962  0.90824  Biso   1.000  C
  C59      1.0000 0.91010  0.30199  0.09161  Biso   1.000  C
  C60      1.0000 0.08972  0.69797  0.89944  Biso   1.000  C
  C61      1.0000 0.28315  0.38979  0.53039  Biso   1.000  C
  C62      1.0000 0.72341  0.61255  0.46912  Biso   1.000  C
  C63      1.0000 0.60988  0.88996  0.53144  Biso   1.000  C
  C64      1.0000 0.39006  0.10849  0.47962  Biso   1.000  C
  C65      1.0000 0.10949  0.71737  0.52343  Biso   1.000  C
  C66      1.0000 0.89052  0.27835  0.46718  Biso   1.000  C
  C67      1.0000 0.72267  0.61411  0.02397  Biso   1.000  C
  C68      1.0000 0.28476  0.39391  0.97845  Biso   1.000  C
  C69      1.0000 0.38609  0.10757  0.03303  Biso   1.000  C
  C70      1.0000 0.61145  0.89324  0.97757  Biso   1.000  C
  C71      1.0000 0.89333  0.28002  0.02163  Biso   1.000  C
  C72      1.0000 0.10585  0.72048  0.96915  Biso   1.000  C
  C73      1.0000 0.25639  0.40060  0.52873  Biso   1.000  C
  C74      1.0000 0.74743  0.59840  0.47442  Biso   1.000  C
  C75      1.0000 0.59508  0.85167  0.52563  Biso   1.000  C
  C76      1.0000 0.40258  0.14645  0.48338  Biso   1.000  C
  C77      1.0000 0.14751  0.74193  0.51821  Biso   1.000  C
  C78      1.0000 0.85246  0.25402  0.47270  Biso   1.000  C
  C79      1.0000 0.74808  0.60163  0.01987  Biso   1.000  C
  C80      1.0000 0.25978  0.40697  0.98229  Biso   1.000  C
  C81      1.0000 0.39938  0.14569  0.02971  Biso   1.000  C
  C82      1.0000 0.60054  0.85562  0.97964  Biso   1.000  C
  C83      1.0000 0.85539  0.25482  0.01887  Biso   1.000  C
  C84      1.0000 0.14356  0.74660  0.97206  Biso   1.000  C
  C85      1.0000 0.23677  0.39692  0.46253  Biso   1.000  C
  C86      1.0000 0.76596  0.60157  0.54188  Biso   1.000  C
  C87      1.0000 0.59817  0.83611  0.45818  Biso   1.000  C
  C88      1.0000 0.39868  0.16199  0.55004  Biso   1.000  C
  C89      1.0000 0.16281  0.76095  0.45100  Biso   1.000  C
  C90      1.0000 0.83722  0.23520  0.54009  Biso   1.000  C
  C91      1.0000 0.76722  0.60536  0.95288  Biso   1.000  C
  C92      1.0000 0.24051  0.40351  0.04909  Biso   1.000  C
  C93      1.0000 0.39693  0.16191  0.96269  Biso   1.000  C
  C94      1.0000 0.60418  0.83975  0.04599  Biso   1.000  C
  C95      1.0000 0.83923  0.23601  0.95204  Biso   1.000  C
  C96      1.0000 0.15929  0.76558  0.03897  Biso   1.000  C
  C97      1.0000 0.24283  0.38183  0.39632  Biso   1.000  C
  C98      1.0000 0.76153  0.61949  0.60525  Biso   1.000  C
  C99      1.0000 0.61648  0.85832  0.39497  Biso   1.000  C
  C100     1.0000 0.38167  0.14010  0.61442  Biso   1.000  C
  C101     1.0000 0.14054  0.75648  0.38769  Biso   1.000  C
  C102     1.0000 0.85954  0.23984  0.60339  Biso   1.000  C
  C103     1.0000 0.76195  0.62210  0.88856  Biso   1.000  C
  C104     1.0000 0.24507  0.38633  0.11352  Biso   1.000  C
  C105     1.0000 0.38057  0.14050  0.89751  Biso   1.000  C
  C106     1.0000 0.61941  0.86101  0.11187  Biso   1.000  C
  C107     1.0000 0.86056  0.24121  0.88655  Biso   1.000  C
  C108     1.0000 0.13784  0.75945  0.10467  Biso   1.000  C
  C109     1.0000 0.26879  0.36981  0.39965  Biso   1.000  C
  C110     1.0000 0.73808  0.63439  0.59850  Biso   1.000  C
  C111     1.0000 0.63194  0.89679  0.40207  Biso   1.000  C
  C112     1.0000 0.36830  0.10189  0.60922  Biso   1.000  C
  C113     1.0000 0.10231  0.73238  0.39428  Biso   1.000  C
  C114     1.0000 0.89780  0.26359  0.59646  Biso   1.000  C
  C115     1.0000 0.73722  0.63555  0.89416  Biso   1.000  C
  C116     1.0000 0.26951  0.37250  0.10821  Biso   1.000  C
  C117     1.0000 0.36625  0.10210  0.90240  Biso   1.000  C
  C118     1.0000 0.63144  0.89901  0.10822  Biso   1.000  C
  C119     1.0000 0.89878  0.26584  0.89072  Biso   1.000  C
  C120     1.0000 0.09980  0.73408  0.10026  Biso   1.000  C
  C121     1.0000 0.28895  0.37409  0.46520  Biso   1.000  C
  C122     1.0000 0.71896  0.63065  0.53175  Biso   1.000  C
  C123     1.0000 0.62845  0.91241  0.46898  Biso   1.000  C
  C124     1.0000 0.37273  0.08632  0.54317  Biso   1.000  C
  C125     1.0000 0.08702  0.71280  0.46079  Biso   1.000  C
  C126     1.0000 0.91310  0.28282  0.52959  Biso   1.000  C
  C127     1.0000 0.71757  0.63133  0.96061  Biso   1.000  C
  C128     1.0000 0.28939  0.37658  0.04218  Biso   1.000  C
  C129     1.0000 0.36934  0.08590  0.96871  Biso   1.000  C
  C130     1.0000 0.62715  0.91484  0.04252  Biso   1.000  C
  C131     1.0000 0.91491  0.28533  0.95686  Biso   1.000  C
  C132     1.0000 0.08406  0.71459  0.03387  Biso   1.000  C
  C133     1.0000 0.22385  0.38008  0.32432  Biso   1.000  C
  C134     1.0000 0.78048  0.62234  0.67768  Biso   1.000  C
  C135     1.0000 0.61924  0.84202  0.32245  Biso   1.000  C
  C136     1.0000 0.37895  0.15691  0.68623  Biso   1.000  C
  C137     1.0000 0.15653  0.77622  0.31571  Biso   1.000  C
  C138     1.0000 0.84318  0.22116  0.67603  Biso   1.000  C
  C139     1.0000 0.78091  0.62424  0.81638  Biso   1.000  C
  C140     1.0000 0.22532  0.38299  0.18545  Biso   1.000  C
  C141     1.0000 0.37886  0.15746  0.82509  Biso   1.000  C
  C142     1.0000 0.62139  0.84375  0.18365  Biso   1.000  C
  C143     1.0000 0.84349  0.22194  0.81480  Biso   1.000  C
  C144     1.0000 0.15495  0.77802  0.17703  Biso   1.000  C
  C145     1.0000 0.24188  0.38373  0.25500  Biso   1.000  C
  C146     1.0000 0.76355  0.62166  0.74688  Biso   1.000  C
  C147     1.0000 0.61867  0.85838  0.25343  Biso   1.000  C
  C148     1.0000 0.38055  0.14169  0.75599  Biso   1.000  C
  C149     1.0000 0.14047  0.75984  0.24615  Biso   1.000  C
  C150     1.0000 0.85882  0.23870  0.74496  Biso   1.000  C
  C151     1.0000 0.18849  0.37600  0.32311  Biso   1.000  C
  C152     1.0000 0.81508  0.62479  0.67902  Biso   1.000  C
  C153     1.0000 0.62169  0.80978  0.32078  Biso   1.000  C
  C154     1.0000 0.37575  0.18873  0.68646  Biso   1.000  C
  C155     1.0000 0.18831  0.81116  0.31513  Biso   1.000  C
  C156     1.0000 0.81140  0.18623  0.67774  Biso   1.000  C
  C157     1.0000 0.81589  0.62753  0.81575  Biso   1.000  C
  C158     1.0000 0.19035  0.37975  0.18633  Biso   1.000  C
  C159     1.0000 0.37649  0.18975  0.82336  Biso   1.000  C
  C160     1.0000 0.62482  0.81205  0.18400  Biso   1.000  C
  C161     1.0000 0.81132  0.18725  0.81459  Biso   1.000  C
  C162     1.0000 0.18637  0.81329  0.17848  Biso   1.000  C
  C163     1.0000 0.17158  0.37649  0.25463  Biso   1.000  C
  C164     1.0000 0.83310  0.62719  0.74760  Biso   1.000  C
  C165     1.0000 0.62449  0.79437  0.25199  Biso   1.000  C
  C166     1.0000 0.37507  0.20589  0.75450  Biso   1.000  C
  C167     1.0000 0.20375  0.83004  0.24704  Biso   1.000  C
  C168     1.0000 0.79474  0.16909  0.74658  Biso   1.000  C
  C169     1.0000 0.13514  0.37433  0.25405  Biso   1.000  C
  C170     1.0000 0.86895  0.62837  0.74806  Biso   1.000  C
  C171     1.0000 0.62677  0.76015  0.25112  Biso   1.000  C
  C172     1.0000 0.37339  0.24044  0.75347  Biso   1.000  C
  C173     1.0000 0.23803  0.86637  0.24796  Biso   1.000  C
  C174     1.0000 0.76023  0.13299  0.74717  Biso   1.000  C
  C175     1.0000 0.11190  0.36124  0.19022  Biso   1.000  C
  C176     1.0000 0.87917  0.61436  0.81026  Biso   1.000  C
  C177     1.0000 0.61423  0.73623  0.18817  Biso   1.000  C
  C178     1.0000 0.35868  0.25048  0.81488  Biso   1.000  C
  C179     1.0000 0.26264  0.87781  0.18618  Biso   1.000  C
  C180     1.0000 0.75061  0.10868  0.80919  Biso   1.000  C
  C181     1.0000 0.89329  0.64236  0.68594  Biso   1.000  C
  C182     1.0000 0.12301  0.38632  0.31681  Biso   1.000  C
  C183     1.0000 0.38726  0.26476  0.69124  Biso   1.000  C
  C184     1.0000 0.64094  0.75012  0.31335  Biso   1.000  C
  C185     1.0000 0.73556  0.12229  0.68573  Biso   1.000  C
  C186     1.0000 0.24768  0.89002  0.31119  Biso   1.000  C
  C187     1.0000 0.07858  0.36100  0.18836  Biso   1.000  C
  C188     1.0000 0.91235  0.61441  0.81063  Biso   1.000  C
  C189     1.0000 0.61602  0.70392  0.18702  Biso   1.000  C
  C190     1.0000 0.35884  0.28383  0.81515  Biso   1.000  C
  C191     1.0000 0.29541  0.91139  0.18736  Biso   1.000  C
  C192     1.0000 0.71738  0.07550  0.81060  Biso   1.000  C
  C193     1.0000 0.92596  0.64136  0.68497  Biso   1.000  C
  C194     1.0000 0.08919  0.38504  0.31617  Biso   1.000  C
  C195     1.0000 0.38639  0.29756  0.69015  Biso   1.000  C
  C196     1.0000 0.64170  0.71724  0.31347  Biso   1.000  C
  C197     1.0000 0.70288  0.08863  0.68578  Biso   1.000  C
  C198     1.0000 0.28093  0.92316  0.31354  Biso   1.000  C
  C199     1.0000 0.06673  0.37275  0.25152  Biso   1.000  C
  C200     1.0000 0.93581  0.62742  0.74746  Biso   1.000  C
  C201     1.0000 0.62939  0.69385  0.25009  Biso   1.000  C
  C202     1.0000 0.37263  0.30771  0.75261  Biso   1.000  C
  C203     1.0000 0.30512  0.93424  0.25147  Biso   1.000  C
  C204     1.0000 0.69326  0.06507  0.74868  Biso   1.000  C
  C205     1.0000 0.37326  0.34365  0.75301  Biso   1.000  C
  C206     1.0000 0.63015  0.65861  0.24987  Biso   1.000  C
  C207     1.0000 0.65767  0.02960  0.74976  Biso   1.000  C
  C208     1.0000 0.34078  0.96967  0.25294  Biso   1.000  C
  C209     1.0000 0.97070  0.62626  0.74683  Biso   1.000  C
  C210     1.0000 0.03084  0.37218  0.25024  Biso   1.000  C
  C211     1.0000 0.36048  0.51036  0.75130  Biso   1.000  C
  C212     1.0000 0.64418  0.49195  0.25194  Biso   1.000  C
  C213     1.0000 0.49065  0.85030  0.75077  Biso   1.000  C
  C214     1.0000 0.50745  0.14907  0.25112  Biso   1.000  C
  C215     1.0000 0.14998  0.64071  0.75270  Biso   1.000  C
  C216     1.0000 0.84996  0.35678  0.24726  Biso   1.000  C
  C217     1.0000 0.35513  0.54290  0.75021  Biso   1.000  C
  C218     1.0000 0.64857  0.45872  0.25259  Biso   1.000  C
  C219     1.0000 0.45796  0.81258  0.74824  Biso   1.000  C
  C220     1.0000 0.54070  0.18659  0.24967  Biso   1.000  C
  C221     1.0000 0.18769  0.64572  0.75440  Biso   1.000  C
  C222     1.0000 0.81219  0.35170  0.24965  Biso   1.000  C
  C223     1.0000 0.68201  0.46159  0.22992  Biso   1.000  C
  C224     1.0000 0.46044  0.78267  0.77704  Biso   1.000  C
  C225     1.0000 0.53884  0.21625  0.21730  Biso   1.000  C
  C226     1.0000 0.21703  0.67812  0.78445  Biso   1.000  C
  C227     1.0000 0.78276  0.32031  0.21665  Biso   1.000  C
  C228     1.0000 0.32167  0.53906  0.72512  Biso   1.000  C
  C229     1.0000 0.68607  0.43058  0.22893  Biso   1.000  C
  C230     1.0000 0.42984  0.74744  0.77621  Biso   1.000  C
  C231     1.0000 0.56977  0.25134  0.21589  Biso   1.000  C
  C232     1.0000 0.25235  0.68297  0.78573  Biso   1.000  C
  C233     1.0000 0.74750  0.31562  0.21733  Biso   1.000  C
  C234     1.0000 0.31663  0.56946  0.72354  Biso   1.000  C
  C235     1.0000 0.34431  0.60420  0.74928  Biso   1.000  C
  C236     1.0000 0.65740  0.39587  0.25287  Biso   1.000  C
  C237     1.0000 0.39625  0.74082  0.74465  Biso   1.000  C
  C238     1.0000 0.60319  0.25823  0.24894  Biso   1.000  C
  C239     1.0000 0.25957  0.65615  0.75498  Biso   1.000  C
  C240     1.0000 0.74028  0.34153  0.25281  Biso   1.000  C
  C241     1.0000 0.37756  0.60751  0.77534  Biso   1.000  C
  C242     1.0000 0.62419  0.39354  0.27668  Biso   1.000  C
  C243     1.0000 0.60458  0.22826  0.28174  Biso   1.000  C
  C244     1.0000 0.39433  0.77098  0.71463  Biso   1.000  C
  C245     1.0000 0.76993  0.37253  0.28711  Biso   1.000  C
  C246     1.0000 0.22989  0.62385  0.72459  Biso   1.000  C
  C247     1.0000 0.38321  0.57747  0.77468  Biso   1.000  C
  C248     1.0000 0.61957  0.42425  0.27543  Biso   1.000  C
  C249     1.0000 0.57406  0.19287  0.28109  Biso   1.000  C
  C250     1.0000 0.42457  0.80649  0.71737  Biso   1.000  C
  C251     1.0000 0.80547  0.37788  0.28467  Biso   1.000  C
  C252     1.0000 0.19433  0.61839  0.72523  Biso   1.000  C
  C253     1.0000 0.33863  0.63633  0.74902  Biso   1.000  C
  C254     1.0000 0.66215  0.36303  0.25268  Biso   1.000  C
  C255     1.0000 0.36394  0.70318  0.74533  Biso   1.000  C
  C256     1.0000 0.63579  0.29585  0.24992  Biso   1.000  C
  C257     1.0000 0.29731  0.66184  0.75289  Biso   1.000  C
  C258     1.0000 0.70268  0.33643  0.25302  Biso   1.000  C
  C259     1.0000 0.30314  0.63161  0.75464  Biso   1.000  C
  C260     1.0000 0.69746  0.36703  0.25446  Biso   1.000  C
  C261     1.0000 0.36867  0.67228  0.74344  Biso   1.000  C
  C262     1.0000 0.63163  0.32715  0.25037  Biso   1.000  C
  C263     1.0000 0.32804  0.69748  0.74900  Biso   1.000  C
  C264     1.0000 0.67154  0.30101  0.25089  Biso   1.000  C
  O1       1.0000 0.37181  0.42947  0.75238  Biso   1.000  O
  O2       1.0000 0.63509  0.57443  0.24838  Biso   1.000  O
  O3       1.0000 0.57295  0.94139  0.75198  Biso   1.000  O
  O4       1.0000 0.42547  0.05787  0.25206  Biso   1.000  O
  O5       1.0000 0.05914  0.63067  0.74814  Biso   1.000  O
  O6       1.0000 0.94140  0.36668  0.24756  Biso   1.000  O
  O7       1.0000 0.44335  0.49270  0.66293  Biso   1.000  O
  O8       1.0000 0.56317  0.51403  0.34103  Biso   1.000  O
  O9       1.0000 0.51223  0.95367  0.66296  Biso   1.000  O
  O10      1.0000 0.48622  0.04317  0.33341  Biso   1.000  O
  O11      1.0000 0.04789  0.55813  0.65910  Biso   1.000  O
  O12      1.0000 0.95333  0.43990  0.33631  Biso   1.000  O
  O13      1.0000 0.56253  0.51152  0.16261  Biso   1.000  O
  O14      1.0000 0.44292  0.49090  0.84361  Biso   1.000  O
  O15      1.0000 0.48808  0.05128  0.15561  Biso   1.000  O
  O16      1.0000 0.51042  0.95033  0.84088  Biso   1.000  O
  O17      1.0000 0.95041  0.43833  0.15881  Biso   1.000  O
  O18      1.0000 0.04942  0.55845  0.83743  Biso   1.000  O
  O19      1.0000 0.29625  0.40621  0.65964  Biso   1.000  O
  O20      1.0000 0.71026  0.59504  0.34037  Biso   1.000  O
  O21      1.0000 0.59051  0.88490  0.65903  Biso   1.000  O
  O22      1.0000 0.40809  0.11302  0.35127  Biso   1.000  O
  O23      1.0000 0.11378  0.70401  0.65213  Biso   1.000  O
  O24      1.0000 0.88524  0.29338  0.34030  Biso   1.000  O
  O25      1.0000 0.70877  0.59526  0.15184  Biso   1.000  O
  O26      1.0000 0.29747  0.40949  0.84851  Biso   1.000  O
  O27      1.0000 0.40157  0.11038  0.16277  Biso   1.000  O
  O28      1.0000 0.59536  0.88974  0.84823  Biso   1.000  O
  O29      1.0000 0.89043  0.29139  0.15194  Biso   1.000  O
  O30      1.0000 0.11038  0.70732  0.84057  Biso   1.000  O
  O31      1.0000 0.33407  0.39180  0.59258  Biso   1.000  O
  O32      1.0000 0.67533  0.61430  0.40381  Biso   1.000  O
  O33      1.0000 0.61432  0.94070  0.59974  Biso   1.000  O
  O34      1.0000 0.38925  0.05876  0.41439  Biso   1.000  O
  O35      1.0000 0.05962  0.66920  0.58905  Biso   1.000  O
  O36      1.0000 0.94091  0.32506  0.39989  Biso   1.000  O
  O37      1.0000 0.67367  0.61447  0.08918  Biso   1.000  O
  O38      1.0000 0.33416  0.39352  0.91473  Biso   1.000  O
  O39      1.0000 0.38559  0.05761  0.09628  Biso   1.000  O
  O40      1.0000 0.60941  0.94204  0.91473  Biso   1.000  O
  O41      1.0000 0.94258  0.32982  0.08553  Biso   1.000  O
  O42      1.0000 0.05674  0.67084  0.90410  Biso   1.000  O
  O43      1.0000 0.37779  0.35993  0.68914  Biso   1.000  O
  O44      1.0000 0.63363  0.64659  0.31427  Biso   1.000  O
  O45      1.0000 0.64150  0.01765  0.68592  Biso   1.000  O
  O46      1.0000 0.35210  0.98551  0.31738  Biso   1.000  O
  O47      1.0000 0.98580  0.62916  0.68207  Biso   1.000  O
  O48      1.0000 0.01784  0.37459  0.31437  Biso   1.000  O
  O49      1.0000 0.62711  0.64321  0.18540  Biso   1.000  O
  O50      1.0000 0.36941  0.35533  0.81767  Biso   1.000  O
  O51      1.0000 0.35722  0.98122  0.18915  Biso   1.000  O
  O52      1.0000 0.64620  0.01413  0.81446  Biso   1.000  O
  O53      1.0000 0.01602  0.36938  0.18530  Biso   1.000  O
  O54      1.0000 0.98251  0.62228  0.81096  Biso   1.000  O
  O55      1.0000 0.42103  0.43704  0.60373  Biso   1.000  O
  O56      1.0000 0.58852  0.56927  0.40303  Biso   1.000  O
  O57      1.0000 0.56621  0.98063  0.59639  Biso   1.000  O
  O58      1.0000 0.43202  0.01464  0.39942  Biso   1.000  O
  O59      1.0000 0.01750  0.58271  0.59670  Biso   1.000  O
  O60      1.0000 0.98214  0.41405  0.40010  Biso   1.000  O
  O61      1.0000 0.58712  0.56650  0.09990  Biso   1.000  O
  O62      1.0000 0.42021  0.43441  0.89964  Biso   1.000  O
  O63      1.0000 0.43195  0.01614  0.10017  Biso   1.000  O
  O64      1.0000 0.56704  0.98737  0.89287  Biso   1.000  O
  O65      1.0000 0.98402  0.41605  0.10036  Biso   1.000  O
  O66      1.0000 0.01922  0.58337  0.89994  Biso   1.000  O
  O67      1.0000 0.33145  0.47872  0.74759  Biso   1.000  O
  O68      1.0000 0.67361  0.52328  0.24739  Biso   1.000  O
  O69      1.0000 0.52173  0.85267  0.76334  Biso   1.000  O
  O70      1.0000 0.47643  0.14721  0.24043  Biso   1.000  O
  O71      1.0000 0.14736  0.66952  0.76322  Biso   1.000  O
  O72      1.0000 0.85259  0.32856  0.22957  Biso   1.000  O
  O73      1.0000 0.39367  0.51678  0.75596  Biso   1.000  O
  O74      1.0000 0.61125  0.48638  0.25585  Biso   1.000  O
  O75      1.0000 0.48496  0.87736  0.74047  Biso   1.000  O
  O76      1.0000 0.51252  0.12173  0.26304  Biso   1.000  O
  O77      1.0000 0.12328  0.60800  0.74066  Biso   1.000  O
  O78      1.0000 0.87685  0.38894  0.26290  Biso   1.000  O
