data_image0
_cell_length_a       6.8683
_cell_length_b       15.1535
_cell_length_c       15.1489
_cell_angle_alpha    63.4918
_cell_angle_beta     81.2075
_cell_angle_gamma    98.7782

_symmetry_space_group_name_H-M    "P 1"
_symmetry_int_tables_number       1

loop_
  _symmetry_equiv_pos_as_xyz
  'x, y, z'

loop_
  _atom_site_label
  _atom_site_occupancy
  _atom_site_fract_x
  _atom_site_fract_y
  _atom_site_fract_z
  _atom_site_thermal_displace_type
  _atom_site_B_iso_or_equiv
  _atom_site_type_symbol
  Co1      1.0000 0.28564  0.26748  0.32367  Biso   1.000  Co
  Co2      1.0000 0.61361  0.32815  0.40260  Biso   1.000  Co
  Co3      1.0000 0.01835  0.40398  0.26560  Biso   1.000  Co
  Co4      1.0000 0.71714  0.73815  0.67291  Biso   1.000  Co
  Co5      1.0000 0.38633  0.67278  0.59798  Biso   1.000  Co
  Co6      1.0000 0.98226  0.60049  0.73547  Biso   1.000  Co
  H1       1.0000 0.31983  0.47239  0.55343  Biso   1.000  H
  H2       1.0000 0.87367  0.55684  0.97751  Biso   1.000  H
  H3       1.0000 0.85017  0.97661  0.47061  Biso   1.000  H
  H4       1.0000 0.67526  0.52354  0.45364  Biso   1.000  H
  H5       1.0000 0.13008  0.45517  0.02215  Biso   1.000  H
  H6       1.0000 0.15402  0.02699  0.52108  Biso   1.000  H
  C1       1.0000 0.24770  0.39291  0.43433  Biso   1.000  C
  C2       1.0000 0.11733  0.44756  0.46725  Biso   1.000  C
  C3       1.0000 0.93178  0.46208  0.43764  Biso   1.000  C
  C4       1.0000 0.17843  0.48382  0.53160  Biso   1.000  C
  C5       1.0000 0.68288  0.43480  0.17118  Biso   1.000  C
  C6       1.0000 0.58557  0.46868  0.08490  Biso   1.000  C
  C7       1.0000 0.37072  0.43885  0.09885  Biso   1.000  C
  C8       1.0000 0.71064  0.53455  0.98698  Biso   1.000  C
  C9       1.0000 0.85606  0.17253  0.38875  Biso   1.000  C
  C10      1.0000 0.67196  0.08674  0.44431  Biso   1.000  C
  C11      1.0000 0.47165  0.10208  0.45866  Biso   1.000  C
  C12      1.0000 0.69742  0.98756  0.48190  Biso   1.000  C
  C13      1.0000 0.74743  0.60353  0.57159  Biso   1.000  C
  C14      1.0000 0.87802  0.54860  0.53957  Biso   1.000  C
  C15      1.0000 0.06431  0.53483  0.56862  Biso   1.000  C
  C16      1.0000 0.81677  0.51218  0.47537  Biso   1.000  C
  C17      1.0000 0.32011  0.57476  0.82867  Biso   1.000  C
  C18      1.0000 0.41836  0.54265  0.91453  Biso   1.000  C
  C19      1.0000 0.63354  0.57254  0.90039  Biso   1.000  C
  C20      1.0000 0.29317  0.47735  0.01256  Biso   1.000  C
  C21      1.0000 0.14725  0.83169  0.60356  Biso   1.000  C
  C22      1.0000 0.33223  0.91688  0.54766  Biso   1.000  C
  C23      1.0000 0.53272  0.90143  0.53400  Biso   1.000  C
  C24      1.0000 0.30686  0.01611  0.50989  Biso   1.000  C
  O1       1.0000 0.19359  0.36107  0.37351  Biso   1.000  O
  O2       1.0000 0.40738  0.37778  0.46618  Biso   1.000  O
  O3       1.0000 0.86242  0.43097  0.37459  Biso   1.000  O
  O4       1.0000 0.56830  0.37414  0.26156  Biso   1.000  O
  O5       1.0000 0.87448  0.46616  0.15550  Biso   1.000  O
  O6       1.0000 0.23899  0.37490  0.19051  Biso   1.000  O
  O7       1.0000 0.83266  0.26381  0.35631  Biso   1.000  O
  O8       1.0000 0.03119  0.15567  0.37348  Biso   1.000  O
  O9       1.0000 0.43344  0.19506  0.42630  Biso   1.000  O
  O10      1.0000 0.79930  0.63583  0.63240  Biso   1.000  O
  O11      1.0000 0.58844  0.61853  0.53895  Biso   1.000  O
  O12      1.0000 0.13560  0.56828  0.62967  Biso   1.000  O
  O13      1.0000 0.43303  0.63526  0.73796  Biso   1.000  O
  O14      1.0000 0.12872  0.54213  0.84473  Biso   1.000  O
  O15      1.0000 0.76625  0.63522  0.80861  Biso   1.000  O
  O16      1.0000 0.16818  0.73995  0.63725  Biso   1.000  O
  O17      1.0000 0.97257  0.84931  0.61817  Biso   1.000  O
  O18      1.0000 0.57143  0.80839  0.56810  Biso   1.000  O
